/*--------------------------------*- C++ -*----------------------------------*\
  =========                 |
  \\      /  F ield         | OpenFOAM: The Open Source CFD Toolbox
   \\    /   O peration     | Website:  https://openfoam.org
    \\  /    A nd           | Version:  9
     \\/     M anipulation  |
\*---------------------------------------------------------------------------*/
FoamFile
{
    format      ascii;
    class       polyBoundaryMesh;
    location    "constant/polyMesh";
    object      boundary;
}
// * * * * * * * * * * * * * * * * * * * * * * * * * * * * * * * * * * * * * //

7
(
    walls
    {
        type            wall;
        nFaces          988;
        startFace       66572;
    }
    far_field
    {
        type            patch;
        nFaces          640;
        startFace       67560;
    }
    front
    {
        type            empty;
        nFaces          13540;
        startFace       68200;
    }
    back
    {
        type            empty;
        nFaces          13540;
        startFace       81740;
    }
    symmetry
    {
        type            symmetryPlane;
        nFaces          532;
        startFace       95280;
    }
    inlet
    {
        type            patch;
        nFaces          20;
        startFace       95812;
    }
    outlet
    {
        type            patch;
        nFaces          76;
        startFace       95832;
    }
)

// ************************************************************************* //
