/*--------------------------------*- C++ -*----------------------------------*\
  =========                 |
  \\      /  F ield         | OpenFOAM: The Open Source CFD Toolbox
   \\    /   O peration     | Website:  https://openfoam.org
    \\  /    A nd           | Version:  9
     \\/     M anipulation  |
\*---------------------------------------------------------------------------*/
FoamFile
{
    format      ascii;
    class       volScalarField;
    object      p;
}
// * * * * * * * * * * * * * * * * * * * * * * * * * * * * * * * * * * * * * //

dimensions      [1 -1 -2 0 0 0 0];

internalField   uniform 100000;

boundaryField
{
    inlet
    {
        type            fixedValue;
	    value		    uniform 800000;
    }

    outlet
    { // REVIEW: this value might not be fixed
        type            fixedValue;
	    value		    uniform 100000;
    }


    symmetry
    {
        type            symmetryPlane;
    }


    walls
    {
        type            zeroGradient;
    }


    front	
    {
        type            empty;
    }


    back
    {
        type            empty;
    }


    far_field
    {
        type            fixedValue;
	    value		    uniform 100000;
    }
}

// ************************************************************************* //
